Test_Network/network_26/Loads.txt
New Load.LOAD11 Phases=1 Bus1=1102.2 kV=0.23 kW=1 PF=0.95
New Load.LOAD12 Phases=1 Bus1=1104.3 kV=0.23 kW=1 PF=0.95
New Load.LOAD13 Phases=1 Bus1=1141.3 kV=0.23 kW=1 PF=0.95
New Load.LOAD14 Phases=1 Bus1=1212.2 kV=0.23 kW=1 PF=0.95
New Load.LOAD15 Phases=1 Bus1=1217.1 kV=0.23 kW=1 PF=0.95
New Load.LOAD16 Phases=1 Bus1=1228.3 kV=0.23 kW=1 PF=0.95
New Load.LOAD17 Phases=1 Bus1=1232.2 kV=0.23 kW=1 PF=0.95
New Load.LOAD18 Phases=1 Bus1=1258.3 kV=0.23 kW=1 PF=0.95
New Load.LOAD19 Phases=1 Bus1=1267.2 kV=0.23 kW=1 PF=0.95
New Load.LOAD110 Phases=1 Bus1=1281.1 kV=0.23 kW=1 PF=0.95
New Load.LOAD111 Phases=1 Bus1=1296.1 kV=0.23 kW=1 PF=0.95
New Load.LOAD112 Phases=1 Bus1=1310.2 kV=0.23 kW=1 PF=0.95
New Load.LOAD113 Phases=1 Bus1=1352.3 kV=0.23 kW=1 PF=0.95
New Load.LOAD114 Phases=1 Bus1=1412.2 kV=0.23 kW=1 PF=0.95
New Load.LOAD115 Phases=1 Bus1=1433.3 kV=0.23 kW=1 PF=0.95
New Load.LOAD116 Phases=1 Bus1=1434.1 kV=0.23 kW=1 PF=0.95
New Load.LOAD117 Phases=1 Bus1=1441.2 kV=0.23 kW=1 PF=0.95
New Load.LOAD118 Phases=1 Bus1=1442.2 kV=0.23 kW=1 PF=0.95
New Load.LOAD119 Phases=1 Bus1=1446.3 kV=0.23 kW=1 PF=0.95
New Load.LOAD120 Phases=1 Bus1=1465.3 kV=0.23 kW=1 PF=0.95
New Load.LOAD121 Phases=1 Bus1=1481.2 kV=0.23 kW=1 PF=0.95
New Load.LOAD122 Phases=1 Bus1=1493.2 kV=0.23 kW=1 PF=0.95
New Load.LOAD123 Phases=1 Bus1=1507.2 kV=0.23 kW=1 PF=0.95
New Load.LOAD124 Phases=1 Bus1=1518.2 kV=0.23 kW=1 PF=0.95
New Load.LOAD125 Phases=1 Bus1=1531.2 kV=0.23 kW=1 PF=0.95
New Load.LOAD126 Phases=1 Bus1=1560.2 kV=0.23 kW=1 PF=0.95
New Load.LOAD127 Phases=1 Bus1=1590.1 kV=0.23 kW=1 PF=0.95
New Load.LOAD128 Phases=1 Bus1=1620.1 kV=0.23 kW=1 PF=0.95
New Load.LOAD129 Phases=1 Bus1=1679.3 kV=0.23 kW=1 PF=0.95
New Load.LOAD130 Phases=1 Bus1=1700.3 kV=0.23 kW=1 PF=0.95
New Load.LOAD131 Phases=1 Bus1=1702.2 kV=0.23 kW=1 PF=0.95
New Load.LOAD132 Phases=1 Bus1=1713.3 kV=0.23 kW=1 PF=0.95
New Load.LOAD133 Phases=1 Bus1=1748.2 kV=0.23 kW=1 PF=0.95
New Load.LOAD134 Phases=1 Bus1=1778.2 kV=0.23 kW=1 PF=0.95
New Load.LOAD135 Phases=1 Bus1=1797.3 kV=0.23 kW=1 PF=0.95
New Load.LOAD136 Phases=1 Bus1=1822.2 kV=0.23 kW=1 PF=0.95
New Load.LOAD137 Phases=1 Bus1=1823.2 kV=0.23 kW=1 PF=0.95
New Load.LOAD138 Phases=1 Bus1=1824.3 kV=0.23 kW=1 PF=0.95
New Load.LOAD139 Phases=1 Bus1=1840.3 kV=0.23 kW=1 PF=0.95
New Load.LOAD140 Phases=1 Bus1=1854.3 kV=0.23 kW=1 PF=0.95
New Load.LOAD141 Phases=1 Bus1=1855.2 kV=0.23 kW=1 PF=0.95
New Load.LOAD142 Phases=1 Bus1=1866.2 kV=0.23 kW=1 PF=0.95
New Load.LOAD143 Phases=1 Bus1=1873.2 kV=0.23 kW=1 PF=0.95
New Load.LOAD144 Phases=1 Bus1=1878.2 kV=0.23 kW=1 PF=0.95
New Load.LOAD145 Phases=1 Bus1=1890.1 kV=0.23 kW=1 PF=0.95
New Load.LOAD146 Phases=1 Bus1=1896.2 kV=0.23 kW=1 PF=0.95
New Load.LOAD147 Phases=1 Bus1=1897.2 kV=0.23 kW=1 PF=0.95
New Load.LOAD148 Phases=1 Bus1=1920.1 kV=0.23 kW=1 PF=0.95
New Load.LOAD149 Phases=1 Bus1=1921.1 kV=0.23 kW=1 PF=0.95
New Load.LOAD150 Phases=1 Bus1=1958.1 kV=0.23 kW=1 PF=0.95
New Load.LOAD151 Phases=1 Bus1=1968.1 kV=0.23 kW=1 PF=0.95
New Load.LOAD152 Phases=1 Bus1=11012.2 kV=0.23 kW=1 PF=0.95
New Load.LOAD153 Phases=1 Bus1=11025.3 kV=0.23 kW=1 PF=0.95
New Load.LOAD154 Phases=1 Bus1=11026.3 kV=0.23 kW=1 PF=0.95
New Load.LOAD155 Phases=1 Bus1=11045.1 kV=0.23 kW=1 PF=0.95
New Load.LOAD156 Phases=1 Bus1=11046.1 kV=0.23 kW=1 PF=0.95
New Load.LOAD157 Phases=1 Bus1=11070.2 kV=0.23 kW=1 PF=0.95
New Load.LOAD158 Phases=1 Bus1=11071.2 kV=0.23 kW=1 PF=0.95
New Load.LOAD159 Phases=1 Bus1=11114.1 kV=0.23 kW=1 PF=0.95
New Load.LOAD160 Phases=1 Bus1=11119.3 kV=0.23 kW=1 PF=0.95
New Load.LOAD161 Phases=1 Bus1=11120.3 kV=0.23 kW=1 PF=0.95
New Load.LOAD162 Phases=1 Bus1=11125.2 kV=0.23 kW=1 PF=0.95
New Load.LOAD163 Phases=1 Bus1=11126.2 kV=0.23 kW=1 PF=0.95
New Load.LOAD164 Phases=1 Bus1=11159.3 kV=0.23 kW=1 PF=0.95
New Load.LOAD165 Phases=1 Bus1=11165.1 kV=0.23 kW=1 PF=0.95
New Load.LOAD166 Phases=1 Bus1=11174.2 kV=0.23 kW=1 PF=0.95
New Load.LOAD167 Phases=1 Bus1=11192.1 kV=0.23 kW=1 PF=0.95
New Load.LOAD168 Phases=1 Bus1=11201.1 kV=0.23 kW=1 PF=0.95
New Load.LOAD169 Phases=1 Bus1=11211.2 kV=0.23 kW=1 PF=0.95
New Load.LOAD170 Phases=1 Bus1=11252.2 kV=0.23 kW=1 PF=0.95
New Load.LOAD171 Phases=1 Bus1=11253.2 kV=0.23 kW=1 PF=0.95
New Load.LOAD172 Phases=1 Bus1=11254.3 kV=0.23 kW=1 PF=0.95
New Load.LOAD173 Phases=1 Bus1=11255.3 kV=0.23 kW=1 PF=0.95
New Load.LOAD174 Phases=1 Bus1=11281.3 kV=0.23 kW=1 PF=0.95
New Load.LOAD175 Phases=1 Bus1=11282.3 kV=0.23 kW=1 PF=0.95
New Load.LOAD176 Phases=1 Bus1=11316.1 kV=0.23 kW=1 PF=0.95
New Load.LOAD177 Phases=1 Bus1=11317.1 kV=0.23 kW=1 PF=0.95
New Load.LOAD178 Phases=1 Bus1=11319.1 kV=0.23 kW=1 PF=0.95
New Load.LOAD179 Phases=1 Bus1=11334.2 kV=0.23 kW=1 PF=0.95
New Load.LOAD180 Phases=1 Bus1=11335.2 kV=0.23 kW=1 PF=0.95
New Load.LOAD181 Phases=1 Bus1=11344.1 kV=0.23 kW=1 PF=0.95
New Load.LOAD182 Phases=1 Bus1=11345.1 kV=0.23 kW=1 PF=0.95
New Load.LOAD183 Phases=1 Bus1=11355.3 kV=0.23 kW=1 PF=0.95
New Load.LOAD184 Phases=1 Bus1=11369.1 kV=0.23 kW=1 PF=0.95
New Load.LOAD185 Phases=1 Bus1=11371.2 kV=0.23 kW=1 PF=0.95
New Load.LOAD186 Phases=1 Bus1=11397.2 kV=0.23 kW=1 PF=0.95
New Load.LOAD187 Phases=1 Bus1=11413.2 kV=0.23 kW=1 PF=0.95
New Load.LOAD188 Phases=1 Bus1=11419.3 kV=0.23 kW=1 PF=0.95
New Load.LOAD189 Phases=1 Bus1=11420.3 kV=0.23 kW=1 PF=0.95
New Load.LOAD190 Phases=1 Bus1=11436.2 kV=0.23 kW=1 PF=0.95
New Load.LOAD191 Phases=1 Bus1=11449.2 kV=0.23 kW=1 PF=0.95
New Load.LOAD192 Phases=1 Bus1=11478.1 kV=0.23 kW=1 PF=0.95
New Load.LOAD193 Phases=1 Bus1=11486.2 kV=0.23 kW=1 PF=0.95
New Load.LOAD194 Phases=1 Bus1=11488.3 kV=0.23 kW=1 PF=0.95
New Load.LOAD195 Phases=1 Bus1=11504.1 kV=0.23 kW=1 PF=0.95
New Load.LOAD196 Phases=1 Bus1=11514.3 kV=0.23 kW=1 PF=0.95
New Load.LOAD197 Phases=1 Bus1=11515.3 kV=0.23 kW=1 PF=0.95
New Load.LOAD198 Phases=1 Bus1=11530.1 kV=0.23 kW=1 PF=0.95
New Load.LOAD199 Phases=1 Bus1=11552.2 kV=0.23 kW=1 PF=0.95
New Load.LOAD1100 Phases=1 Bus1=11601.2 kV=0.23 kW=1 PF=0.95
New Load.LOAD1101 Phases=1 Bus1=11611.3 kV=0.23 kW=1 PF=0.95
New Load.LOAD1102 Phases=1 Bus1=11626.2 kV=0.23 kW=1 PF=0.95
New Load.LOAD1103 Phases=1 Bus1=11652.3 kV=0.23 kW=1 PF=0.95
New Load.LOAD1104 Phases=1 Bus1=11678.2 kV=0.23 kW=1 PF=0.95
New Load.LOAD1105 Phases=1 Bus1=11681.1 kV=0.23 kW=1 PF=0.95
New Load.LOAD1106 Phases=1 Bus1=11685.1 kV=0.23 kW=1 PF=0.95
New Load.LOAD1107 Phases=1 Bus1=11687.1 kV=0.23 kW=1 PF=0.95
New Load.LOAD1108 Phases=1 Bus1=11689.3 kV=0.23 kW=1 PF=0.95
New Load.LOAD1109 Phases=1 Bus1=11695.1 kV=0.23 kW=1 PF=0.95
New Load.LOAD1110 Phases=1 Bus1=11703.3 kV=0.23 kW=1 PF=0.95
New Load.LOAD1111 Phases=1 Bus1=11709.3 kV=0.23 kW=1 PF=0.95
New Load.LOAD1112 Phases=1 Bus1=11726.3 kV=0.23 kW=1 PF=0.95
New Load.LOAD1113 Phases=1 Bus1=11741.1 kV=0.23 kW=1 PF=0.95
New Load.LOAD1114 Phases=1 Bus1=11764.1 kV=0.23 kW=1 PF=0.95
New Load.LOAD1115 Phases=1 Bus1=11782.1 kV=0.23 kW=1 PF=0.95
New Load.LOAD1116 Phases=1 Bus1=11797.2 kV=0.23 kW=1 PF=0.95
New Load.LOAD1117 Phases=1 Bus1=11808.3 kV=0.23 kW=1 PF=0.95
New Load.LOAD1118 Phases=1 Bus1=11811.1 kV=0.23 kW=1 PF=0.95
New Load.LOAD1119 Phases=1 Bus1=11894.1 kV=0.23 kW=1 PF=0.95
New Load.LOAD1120 Phases=1 Bus1=11902.3 kV=0.23 kW=1 PF=0.95
New Load.LOAD1121 Phases=1 Bus1=11929.1 kV=0.23 kW=1 PF=0.95
New Load.LOAD1122 Phases=1 Bus1=11939.3 kV=0.23 kW=1 PF=0.95
New Load.LOAD1123 Phases=1 Bus1=11944.1 kV=0.23 kW=1 PF=0.95
New Load.LOAD1124 Phases=1 Bus1=11969.3 kV=0.23 kW=1 PF=0.95
New Load.LOAD1125 Phases=1 Bus1=12019.2 kV=0.23 kW=1 PF=0.95
New Load.LOAD1126 Phases=1 Bus1=12021.2 kV=0.23 kW=1 PF=0.95
New Load.LOAD1127 Phases=1 Bus1=12110.3 kV=0.23 kW=1 PF=0.95
New Load.LOAD1128 Phases=1 Bus1=12157.1 kV=0.23 kW=1 PF=0.95
New Load.LOAD1129 Phases=1 Bus1=12163.3 kV=0.23 kW=1 PF=0.95
New Load.LOAD1130 Phases=1 Bus1=12183.2 kV=0.23 kW=1 PF=0.95
New Load.LOAD1131 Phases=1 Bus1=12190.1 kV=0.23 kW=1 PF=0.95
New Load.LOAD1132 Phases=1 Bus1=12192.2 kV=0.23 kW=1 PF=0.95
New Load.LOAD1133 Phases=1 Bus1=12194.2 kV=0.23 kW=1 PF=0.95
New Load.LOAD1134 Phases=1 Bus1=12216.2 kV=0.23 kW=1 PF=0.95
New Load.LOAD1135 Phases=1 Bus1=12243.2 kV=0.23 kW=1 PF=0.95
New Load.LOAD1136 Phases=1 Bus1=12279.3 kV=0.23 kW=1 PF=0.95
New Load.LOAD1137 Phases=1 Bus1=12280.3 kV=0.23 kW=1 PF=0.95
New Load.LOAD1138 Phases=1 Bus1=12288.2 kV=0.23 kW=1 PF=0.95
New Load.LOAD1139 Phases=1 Bus1=12298.3 kV=0.23 kW=1 PF=0.95
New Load.LOAD1140 Phases=1 Bus1=12300.1 kV=0.23 kW=1 PF=0.95
New Load.LOAD1141 Phases=1 Bus1=12306.3 kV=0.23 kW=1 PF=0.95
New Load.LOAD1142 Phases=1 Bus1=12328.2 kV=0.23 kW=1 PF=0.95
New Load.LOAD1143 Phases=1 Bus1=12330.1 kV=0.23 kW=1 PF=0.95
New Load.LOAD1144 Phases=1 Bus1=12369.3 kV=0.23 kW=1 PF=0.95
New Load.LOAD1145 Phases=1 Bus1=12371.1 kV=0.23 kW=1 PF=0.95
New Load.LOAD1146 Phases=1 Bus1=12379.2 kV=0.23 kW=1 PF=0.95
New Load.LOAD1147 Phases=1 Bus1=12429.1 kV=0.23 kW=1 PF=0.95
New Load.LOAD1148 Phases=1 Bus1=12464.3 kV=0.23 kW=1 PF=0.95
New Load.LOAD1149 Phases=1 Bus1=12465.3 kV=0.23 kW=1 PF=0.95
New Load.LOAD1150 Phases=1 Bus1=12469.1 kV=0.23 kW=1 PF=0.95
New Load.LOAD1151 Phases=1 Bus1=12471.1 kV=0.23 kW=1 PF=0.95
New Load.LOAD1152 Phases=1 Bus1=12472.2 kV=0.23 kW=1 PF=0.95
New Load.LOAD1153 Phases=1 Bus1=12483.2 kV=0.23 kW=1 PF=0.95
New Load.LOAD1154 Phases=1 Bus1=12494.1 kV=0.23 kW=1 PF=0.95
New Load.LOAD1155 Phases=1 Bus1=12513.2 kV=0.23 kW=1 PF=0.95
New Load.LOAD1156 Phases=1 Bus1=12517.2 kV=0.23 kW=1 PF=0.95
New Load.LOAD1157 Phases=1 Bus1=12535.2 kV=0.23 kW=1 PF=0.95
New Load.LOAD1158 Phases=1 Bus1=12548.3 kV=0.23 kW=1 PF=0.95
New Load.LOAD1159 Phases=1 Bus1=12575.1 kV=0.23 kW=1 PF=0.95
New Load.LOAD1160 Phases=1 Bus1=12577.2 kV=0.23 kW=1 PF=0.95
New Load.LOAD1161 Phases=1 Bus1=12586.2 kV=0.23 kW=1 PF=0.95
New Load.LOAD1162 Phases=1 Bus1=12596.3 kV=0.23 kW=1 PF=0.95
New Load.LOAD1163 Phases=1 Bus1=12598.1 kV=0.23 kW=1 PF=0.95
New Load.LOAD1164 Phases=1 Bus1=12603.2 kV=0.23 kW=1 PF=0.95
New Load.LOAD1165 Phases=1 Bus1=12615.2 kV=0.23 kW=1 PF=0.95
New Load.LOAD1166 Phases=1 Bus1=12633.3 kV=0.23 kW=1 PF=0.95
New Load.LOAD1167 Phases=1 Bus1=12654.1 kV=0.23 kW=1 PF=0.95
New Load.LOAD1168 Phases=1 Bus1=12672.2 kV=0.23 kW=1 PF=0.95
New Load.LOAD1169 Phases=1 Bus1=12683.1 kV=0.23 kW=1 PF=0.95
New Load.LOAD1170 Phases=1 Bus1=12712.2 kV=0.23 kW=1 PF=0.95
New Load.LOAD1171 Phases=1 Bus1=12724.2 kV=0.23 kW=1 PF=0.95
New Load.LOAD1172 Phases=1 Bus1=12729.1 kV=0.23 kW=1 PF=0.95
New Load.LOAD1173 Phases=1 Bus1=12753.3 kV=0.23 kW=1 PF=0.95
New Load.LOAD1174 Phases=1 Bus1=12754.1 kV=0.23 kW=1 PF=0.95
New Load.LOAD1175 Phases=1 Bus1=12755.2 kV=0.23 kW=1 PF=0.95
New Load.LOAD1176 Phases=1 Bus1=12757.3 kV=0.23 kW=1 PF=0.95
New Load.LOAD1177 Phases=1 Bus1=12759.1 kV=0.23 kW=1 PF=0.95
New Load.LOAD1178 Phases=1 Bus1=12781.2 kV=0.23 kW=1 PF=0.95
New Load.LOAD1179 Phases=1 Bus1=12785.3 kV=0.23 kW=1 PF=0.95
New Load.LOAD1180 Phases=1 Bus1=12787.3 kV=0.23 kW=1 PF=0.95
New Load.LOAD1181 Phases=1 Bus1=12792.3 kV=0.23 kW=1 PF=0.95
New Load.LOAD1182 Phases=1 Bus1=12803.3 kV=0.23 kW=1 PF=0.95
New Load.LOAD1183 Phases=1 Bus1=12804.2 kV=0.23 kW=1 PF=0.95
New Load.LOAD1184 Phases=1 Bus1=12815.3 kV=0.23 kW=1 PF=0.95
New Load.LOAD1185 Phases=1 Bus1=12816.2 kV=0.23 kW=1 PF=0.95
New Load.LOAD1186 Phases=1 Bus1=12824.1 kV=0.23 kW=1 PF=0.95
New Load.LOAD1187 Phases=1 Bus1=12831.2 kV=0.23 kW=1 PF=0.95
New Load.LOAD1188 Phases=1 Bus1=12837.3 kV=0.23 kW=1 PF=0.95
New Load.LOAD21 Phases=1 Bus1=230.1 kV=0.23 kW=1 PF=0.95
New Load.LOAD22 Phases=1 Bus1=2110.1 kV=0.23 kW=1 PF=0.95
New Load.LOAD23 Phases=1 Bus1=2118.3 kV=0.23 kW=1 PF=0.95
New Load.LOAD24 Phases=1 Bus1=2186.3 kV=0.23 kW=1 PF=0.95
New Load.LOAD25 Phases=1 Bus1=2193.1 kV=0.23 kW=1 PF=0.95
New Load.LOAD26 Phases=1 Bus1=2254.1 kV=0.23 kW=1 PF=0.95
New Load.LOAD27 Phases=1 Bus1=2259.3 kV=0.23 kW=1 PF=0.95
New Load.LOAD28 Phases=1 Bus1=2460.1 kV=0.23 kW=1 PF=0.95
New Load.LOAD31 Phases=1 Bus1=376.2 kV=0.23 kW=1 PF=0.95
New Load.LOAD32 Phases=1 Bus1=383.2 kV=0.23 kW=1 PF=0.95
New Load.LOAD33 Phases=1 Bus1=3103.3 kV=0.23 kW=1 PF=0.95
New Load.LOAD34 Phases=1 Bus1=3111.2 kV=0.23 kW=1 PF=0.95
New Load.LOAD35 Phases=1 Bus1=3163.1 kV=0.23 kW=1 PF=0.95
New Load.LOAD36 Phases=1 Bus1=3173.1 kV=0.23 kW=1 PF=0.95
New Load.LOAD37 Phases=1 Bus1=3200.3 kV=0.23 kW=1 PF=0.95
New Load.LOAD38 Phases=1 Bus1=3207.2 kV=0.23 kW=1 PF=0.95
New Load.LOAD39 Phases=1 Bus1=3258.1 kV=0.23 kW=1 PF=0.95
New Load.LOAD310 Phases=1 Bus1=3262.3 kV=0.23 kW=1 PF=0.95
New Load.LOAD311 Phases=1 Bus1=3267.1 kV=0.23 kW=1 PF=0.95
New Load.LOAD312 Phases=1 Bus1=3273.2 kV=0.23 kW=1 PF=0.95
New Load.LOAD313 Phases=1 Bus1=3297.2 kV=0.23 kW=1 PF=0.95
New Load.LOAD314 Phases=1 Bus1=3308.1 kV=0.23 kW=1 PF=0.95
New Load.LOAD315 Phases=1 Bus1=3309.1 kV=0.23 kW=1 PF=0.95
New Load.LOAD316 Phases=1 Bus1=3327.1 kV=0.23 kW=1 PF=0.95
New Load.LOAD317 Phases=1 Bus1=3341.1 kV=0.23 kW=1 PF=0.95
New Load.LOAD318 Phases=1 Bus1=3346.3 kV=0.23 kW=1 PF=0.95
New Load.LOAD319 Phases=1 Bus1=3347.3 kV=0.23 kW=1 PF=0.95
New Load.LOAD320 Phases=1 Bus1=3352.3 kV=0.23 kW=1 PF=0.95
New Load.LOAD321 Phases=1 Bus1=3353.3 kV=0.23 kW=1 PF=0.95
New Load.LOAD322 Phases=1 Bus1=3354.2 kV=0.23 kW=1 PF=0.95
New Load.LOAD323 Phases=1 Bus1=3363.2 kV=0.23 kW=1 PF=0.95
New Load.LOAD324 Phases=1 Bus1=3364.2 kV=0.23 kW=1 PF=0.95
New Load.LOAD325 Phases=1 Bus1=3374.1 kV=0.23 kW=1 PF=0.95
New Load.LOAD326 Phases=1 Bus1=3405.3 kV=0.23 kW=1 PF=0.95
New Load.LOAD327 Phases=1 Bus1=3445.2 kV=0.23 kW=1 PF=0.95
New Load.LOAD328 Phases=1 Bus1=3468.2 kV=0.23 kW=1 PF=0.95
New Load.LOAD329 Phases=1 Bus1=3475.2 kV=0.23 kW=1 PF=0.95
New Load.LOAD330 Phases=1 Bus1=3511.1 kV=0.23 kW=1 PF=0.95
New Load.LOAD331 Phases=1 Bus1=3520.2 kV=0.23 kW=1 PF=0.95
New Load.LOAD332 Phases=1 Bus1=3543.3 kV=0.23 kW=1 PF=0.95
New Load.LOAD333 Phases=1 Bus1=3544.2 kV=0.23 kW=1 PF=0.95
New Load.LOAD334 Phases=1 Bus1=3571.2 kV=0.23 kW=1 PF=0.95
New Load.LOAD335 Phases=1 Bus1=3572.3 kV=0.23 kW=1 PF=0.95
New Load.LOAD336 Phases=1 Bus1=3607.2 kV=0.23 kW=1 PF=0.95
New Load.LOAD337 Phases=1 Bus1=3614.2 kV=0.23 kW=1 PF=0.95
New Load.LOAD338 Phases=1 Bus1=3626.1 kV=0.23 kW=1 PF=0.95
New Load.LOAD339 Phases=1 Bus1=3638.3 kV=0.23 kW=1 PF=0.95
New Load.LOAD340 Phases=1 Bus1=3643.2 kV=0.23 kW=1 PF=0.95
New Load.LOAD341 Phases=1 Bus1=3644.2 kV=0.23 kW=1 PF=0.95
New Load.LOAD342 Phases=1 Bus1=3651.1 kV=0.23 kW=1 PF=0.95
New Load.LOAD343 Phases=1 Bus1=3655.1 kV=0.23 kW=1 PF=0.95
New Load.LOAD344 Phases=1 Bus1=3656.1 kV=0.23 kW=1 PF=0.95
New Load.LOAD345 Phases=1 Bus1=3734.3 kV=0.23 kW=1 PF=0.95
New Load.LOAD346 Phases=1 Bus1=3743.2 kV=0.23 kW=1 PF=0.95
New Load.LOAD347 Phases=1 Bus1=3744.1 kV=0.23 kW=1 PF=0.95
New Load.LOAD348 Phases=1 Bus1=3753.2 kV=0.23 kW=1 PF=0.95
New Load.LOAD349 Phases=1 Bus1=3768.1 kV=0.23 kW=1 PF=0.95
New Load.LOAD350 Phases=1 Bus1=3792.3 kV=0.23 kW=1 PF=0.95
New Load.LOAD351 Phases=1 Bus1=3793.2 kV=0.23 kW=1 PF=0.95
New Load.LOAD352 Phases=1 Bus1=3822.1 kV=0.23 kW=1 PF=0.95
New Load.LOAD353 Phases=1 Bus1=3850.3 kV=0.23 kW=1 PF=0.95
New Load.LOAD354 Phases=1 Bus1=3858.1 kV=0.23 kW=1 PF=0.95
New Load.LOAD355 Phases=1 Bus1=3887.3 kV=0.23 kW=1 PF=0.95
New Load.LOAD356 Phases=1 Bus1=3888.2 kV=0.23 kW=1 PF=0.95
New Load.LOAD357 Phases=1 Bus1=3923.2 kV=0.23 kW=1 PF=0.95
New Load.LOAD358 Phases=1 Bus1=3925.1 kV=0.23 kW=1 PF=0.95
New Load.LOAD359 Phases=1 Bus1=3936.3 kV=0.23 kW=1 PF=0.95
New Load.LOAD360 Phases=1 Bus1=3953.1 kV=0.23 kW=1 PF=0.95
New Load.LOAD361 Phases=1 Bus1=3984.2 kV=0.23 kW=1 PF=0.95
New Load.LOAD362 Phases=1 Bus1=3986.1 kV=0.23 kW=1 PF=0.95
New Load.LOAD363 Phases=1 Bus1=3989.2 kV=0.23 kW=1 PF=0.95
New Load.LOAD364 Phases=1 Bus1=3995.1 kV=0.23 kW=1 PF=0.95
New Load.LOAD365 Phases=1 Bus1=31027.3 kV=0.23 kW=1 PF=0.95
New Load.LOAD366 Phases=1 Bus1=31037.1 kV=0.23 kW=1 PF=0.95
New Load.LOAD367 Phases=1 Bus1=31039.2 kV=0.23 kW=1 PF=0.95
New Load.LOAD368 Phases=1 Bus1=31040.1 kV=0.23 kW=1 PF=0.95
New Load.LOAD369 Phases=1 Bus1=31062.2 kV=0.23 kW=1 PF=0.95
New Load.LOAD370 Phases=1 Bus1=31064.3 kV=0.23 kW=1 PF=0.95
New Load.LOAD371 Phases=1 Bus1=31071.3 kV=0.23 kW=1 PF=0.95
New Load.LOAD372 Phases=1 Bus1=31083.1 kV=0.23 kW=1 PF=0.95
New Load.LOAD373 Phases=1 Bus1=31099.3 kV=0.23 kW=1 PF=0.95
New Load.LOAD374 Phases=1 Bus1=31103.2 kV=0.23 kW=1 PF=0.95
New Load.LOAD375 Phases=1 Bus1=31122.3 kV=0.23 kW=1 PF=0.95
New Load.LOAD376 Phases=1 Bus1=31129.2 kV=0.23 kW=1 PF=0.95
New Load.LOAD377 Phases=1 Bus1=31131.1 kV=0.23 kW=1 PF=0.95
New Load.LOAD378 Phases=1 Bus1=31133.3 kV=0.23 kW=1 PF=0.95
New Load.LOAD41 Phases=1 Bus1=4104.3 kV=0.23 kW=1 PF=0.95
New Load.LOAD42 Phases=1 Bus1=4106.1 kV=0.23 kW=1 PF=0.95
New Load.LOAD43 Phases=1 Bus1=4114.1 kV=0.23 kW=1 PF=0.95
New Load.LOAD44 Phases=1 Bus1=4116.2 kV=0.23 kW=1 PF=0.95
New Load.LOAD45 Phases=1 Bus1=4173.1 kV=0.23 kW=1 PF=0.95
New Load.LOAD46 Phases=1 Bus1=4194.3 kV=0.23 kW=1 PF=0.95
New Load.LOAD47 Phases=1 Bus1=4196.1 kV=0.23 kW=1 PF=0.95
New Load.LOAD48 Phases=1 Bus1=4200.1 kV=0.23 kW=1 PF=0.95
New Load.LOAD49 Phases=1 Bus1=4215.2 kV=0.23 kW=1 PF=0.95
New Load.LOAD410 Phases=1 Bus1=4247.3 kV=0.23 kW=1 PF=0.95
New Load.LOAD411 Phases=1 Bus1=4348.1 kV=0.23 kW=1 PF=0.95
New Load.LOAD412 Phases=1 Bus1=4366.1 kV=0.23 kW=1 PF=0.95
New Load.LOAD413 Phases=1 Bus1=4367.1 kV=0.23 kW=1 PF=0.95
New Load.LOAD414 Phases=1 Bus1=4368.1 kV=0.23 kW=1 PF=0.95
New Load.LOAD415 Phases=1 Bus1=4369.1 kV=0.23 kW=1 PF=0.95
New Load.LOAD416 Phases=1 Bus1=4378.2 kV=0.23 kW=1 PF=0.95
New Load.LOAD417 Phases=1 Bus1=4382.3 kV=0.23 kW=1 PF=0.95
New Load.LOAD418 Phases=1 Bus1=4383.2 kV=0.23 kW=1 PF=0.95
New Load.LOAD419 Phases=1 Bus1=4385.1 kV=0.23 kW=1 PF=0.95
New Load.LOAD420 Phases=1 Bus1=4405.1 kV=0.23 kW=1 PF=0.95
New Load.LOAD421 Phases=1 Bus1=4410.3 kV=0.23 kW=1 PF=0.95
New Load.LOAD422 Phases=1 Bus1=4411.3 kV=0.23 kW=1 PF=0.95
New Load.LOAD423 Phases=1 Bus1=4412.3 kV=0.23 kW=1 PF=0.95
New Load.LOAD424 Phases=1 Bus1=4413.3 kV=0.23 kW=1 PF=0.95
New Load.LOAD425 Phases=1 Bus1=4414.3 kV=0.23 kW=1 PF=0.95
New Load.LOAD426 Phases=1 Bus1=4452.1 kV=0.23 kW=1 PF=0.95
New Load.LOAD427 Phases=1 Bus1=4461.1 kV=0.23 kW=1 PF=0.95
New Load.LOAD428 Phases=1 Bus1=4462.1 kV=0.23 kW=1 PF=0.95
New Load.LOAD429 Phases=1 Bus1=4478.2 kV=0.23 kW=1 PF=0.95
New Load.LOAD430 Phases=1 Bus1=4497.3 kV=0.23 kW=1 PF=0.95
New Load.LOAD431 Phases=1 Bus1=4508.3 kV=0.23 kW=1 PF=0.95
New Load.LOAD432 Phases=1 Bus1=4527.2 kV=0.23 kW=1 PF=0.95
New Load.LOAD433 Phases=1 Bus1=4560.2 kV=0.23 kW=1 PF=0.95
New Load.LOAD434 Phases=1 Bus1=4564.3 kV=0.23 kW=1 PF=0.95
New Load.LOAD435 Phases=1 Bus1=4566.2 kV=0.23 kW=1 PF=0.95
New Load.LOAD436 Phases=1 Bus1=4567.2 kV=0.23 kW=1 PF=0.95
New Load.LOAD437 Phases=1 Bus1=4581.2 kV=0.23 kW=1 PF=0.95
New Load.LOAD438 Phases=1 Bus1=4610.3 kV=0.23 kW=1 PF=0.95
New Load.LOAD439 Phases=1 Bus1=4632.2 kV=0.23 kW=1 PF=0.95
New Load.LOAD440 Phases=1 Bus1=4666.1 kV=0.23 kW=1 PF=0.95
New Load.LOAD441 Phases=1 Bus1=4667.1 kV=0.23 kW=1 PF=0.95
New Load.LOAD442 Phases=1 Bus1=4684.3 kV=0.23 kW=1 PF=0.95
New Load.LOAD443 Phases=1 Bus1=4691.1 kV=0.23 kW=1 PF=0.95
New Load.LOAD444 Phases=1 Bus1=4707.2 kV=0.23 kW=1 PF=0.95
New Load.LOAD445 Phases=1 Bus1=4741.1 kV=0.23 kW=1 PF=0.95
New Load.LOAD446 Phases=1 Bus1=4743.2 kV=0.23 kW=1 PF=0.95
New Load.LOAD447 Phases=1 Bus1=4752.3 kV=0.23 kW=1 PF=0.95
New Load.LOAD448 Phases=1 Bus1=4771.1 kV=0.23 kW=1 PF=0.95
New Load.LOAD449 Phases=1 Bus1=4785.2 kV=0.23 kW=1 PF=0.95
New Load.LOAD450 Phases=1 Bus1=4798.1 kV=0.23 kW=1 PF=0.95
New Load.LOAD451 Phases=1 Bus1=4815.1 kV=0.23 kW=1 PF=0.95
New Load.LOAD452 Phases=1 Bus1=4816.2 kV=0.23 kW=1 PF=0.95
New Load.LOAD453 Phases=1 Bus1=4817.2 kV=0.23 kW=1 PF=0.95
New Load.LOAD454 Phases=1 Bus1=4829.1 kV=0.23 kW=1 PF=0.95
New Load.LOAD455 Phases=1 Bus1=4853.2 kV=0.23 kW=1 PF=0.95
New Load.LOAD456 Phases=1 Bus1=4873.3 kV=0.23 kW=1 PF=0.95
New Load.LOAD457 Phases=1 Bus1=4878.3 kV=0.23 kW=1 PF=0.95
New Load.LOAD458 Phases=1 Bus1=4929.1 kV=0.23 kW=1 PF=0.95
New Load.LOAD459 Phases=1 Bus1=4932.3 kV=0.23 kW=1 PF=0.95
New Load.LOAD460 Phases=1 Bus1=4933.3 kV=0.23 kW=1 PF=0.95
New Load.LOAD461 Phases=1 Bus1=4943.1 kV=0.23 kW=1 PF=0.95
New Load.LOAD462 Phases=1 Bus1=4956.3 kV=0.23 kW=1 PF=0.95
New Load.LOAD463 Phases=1 Bus1=4957.3 kV=0.23 kW=1 PF=0.95
New Load.LOAD464 Phases=1 Bus1=4961.1 kV=0.23 kW=1 PF=0.95
New Load.LOAD465 Phases=1 Bus1=4962.1 kV=0.23 kW=1 PF=0.95
New Load.LOAD466 Phases=1 Bus1=41000.1 kV=0.23 kW=1 PF=0.95
New Load.LOAD467 Phases=1 Bus1=41020.1 kV=0.23 kW=1 PF=0.95
New Load.LOAD468 Phases=1 Bus1=41021.1 kV=0.23 kW=1 PF=0.95
New Load.LOAD469 Phases=1 Bus1=41024.3 kV=0.23 kW=1 PF=0.95
New Load.LOAD470 Phases=1 Bus1=41055.1 kV=0.23 kW=1 PF=0.95
New Load.LOAD471 Phases=1 Bus1=41077.3 kV=0.23 kW=1 PF=0.95
New Load.LOAD472 Phases=1 Bus1=41090.3 kV=0.23 kW=1 PF=0.95
New Load.LOAD473 Phases=1 Bus1=41110.2 kV=0.23 kW=1 PF=0.95
New Load.LOAD474 Phases=1 Bus1=41111.2 kV=0.23 kW=1 PF=0.95
New Load.LOAD475 Phases=1 Bus1=41140.1 kV=0.23 kW=1 PF=0.95
New Load.LOAD476 Phases=1 Bus1=41170.1 kV=0.23 kW=1 PF=0.95
New Load.LOAD477 Phases=1 Bus1=41204.2 kV=0.23 kW=1 PF=0.95
New Load.LOAD478 Phases=1 Bus1=41206.3 kV=0.23 kW=1 PF=0.95
New Load.LOAD479 Phases=1 Bus1=41210.3 kV=0.23 kW=1 PF=0.95
New Load.LOAD480 Phases=1 Bus1=41226.3 kV=0.23 kW=1 PF=0.95
New Load.LOAD481 Phases=1 Bus1=41238.3 kV=0.23 kW=1 PF=0.95
New Load.LOAD482 Phases=1 Bus1=41239.3 kV=0.23 kW=1 PF=0.95
New Load.LOAD483 Phases=1 Bus1=41285.2 kV=0.23 kW=1 PF=0.95
New Load.LOAD484 Phases=1 Bus1=41292.1 kV=0.23 kW=1 PF=0.95
New Load.LOAD485 Phases=1 Bus1=41296.3 kV=0.23 kW=1 PF=0.95
New Load.LOAD486 Phases=1 Bus1=41300.2 kV=0.23 kW=1 PF=0.95
New Load.LOAD487 Phases=1 Bus1=41331.1 kV=0.23 kW=1 PF=0.95
New Load.LOAD488 Phases=1 Bus1=41335.3 kV=0.23 kW=1 PF=0.95
New Load.LOAD489 Phases=1 Bus1=41366.2 kV=0.23 kW=1 PF=0.95
New Load.LOAD490 Phases=1 Bus1=41372.3 kV=0.23 kW=1 PF=0.95
New Load.LOAD491 Phases=1 Bus1=41395.1 kV=0.23 kW=1 PF=0.95
New Load.LOAD492 Phases=1 Bus1=41397.2 kV=0.23 kW=1 PF=0.95
New Load.LOAD493 Phases=1 Bus1=41408.3 kV=0.23 kW=1 PF=0.95
New Load.LOAD494 Phases=1 Bus1=41418.2 kV=0.23 kW=1 PF=0.95
New Load.LOAD495 Phases=1 Bus1=41429.1 kV=0.23 kW=1 PF=0.95
New Load.LOAD496 Phases=1 Bus1=41438.3 kV=0.23 kW=1 PF=0.95
New Load.LOAD497 Phases=1 Bus1=41441.3 kV=0.23 kW=1 PF=0.95
New Load.LOAD498 Phases=1 Bus1=41443.2 kV=0.23 kW=1 PF=0.95
New Load.LOAD499 Phases=1 Bus1=41465.1 kV=0.23 kW=1 PF=0.95
New Load.LOAD4100 Phases=1 Bus1=41479.2 kV=0.23 kW=1 PF=0.95
New Load.LOAD4101 Phases=1 Bus1=41489.1 kV=0.23 kW=1 PF=0.95
New Load.LOAD4102 Phases=1 Bus1=41491.2 kV=0.23 kW=1 PF=0.95
New Load.LOAD4103 Phases=1 Bus1=41525.1 kV=0.23 kW=1 PF=0.95
New Load.LOAD4104 Phases=1 Bus1=41528.2 kV=0.23 kW=1 PF=0.95
New Load.LOAD4105 Phases=1 Bus1=41531.2 kV=0.23 kW=1 PF=0.95
New Load.LOAD4106 Phases=1 Bus1=41534.1 kV=0.23 kW=1 PF=0.95
New Load.LOAD51 Phases=1 Bus1=578.2 kV=0.23 kW=1 PF=0.95
New Load.LOAD52 Phases=1 Bus1=587.2 kV=0.23 kW=1 PF=0.95
New Load.LOAD53 Phases=1 Bus1=596.1 kV=0.23 kW=1 PF=0.95
New Load.LOAD54 Phases=1 Bus1=5112.3 kV=0.23 kW=1 PF=0.95
New Load.LOAD55 Phases=1 Bus1=5139.1 kV=0.23 kW=1 PF=0.95
New Load.LOAD56 Phases=1 Bus1=5159.2 kV=0.23 kW=1 PF=0.95
New Load.LOAD57 Phases=1 Bus1=5174.2 kV=0.23 kW=1 PF=0.95
New Load.LOAD58 Phases=1 Bus1=5196.3 kV=0.23 kW=1 PF=0.95
New Load.LOAD59 Phases=1 Bus1=5208.1 kV=0.23 kW=1 PF=0.95
New Load.LOAD510 Phases=1 Bus1=5230.2 kV=0.23 kW=1 PF=0.95
New Load.LOAD511 Phases=1 Bus1=5237.3 kV=0.23 kW=1 PF=0.95
New Load.LOAD512 Phases=1 Bus1=5288.1 kV=0.23 kW=1 PF=0.95
New Load.LOAD513 Phases=1 Bus1=5316.1 kV=0.23 kW=1 PF=0.95
New Load.LOAD514 Phases=1 Bus1=5361.2 kV=0.23 kW=1 PF=0.95
New Load.LOAD515 Phases=1 Bus1=5382.3 kV=0.23 kW=1 PF=0.95
New Load.LOAD516 Phases=1 Bus1=5384.1 kV=0.23 kW=1 PF=0.95
New Load.LOAD517 Phases=1 Bus1=5391.3 kV=0.23 kW=1 PF=0.95
New Load.LOAD518 Phases=1 Bus1=5396.3 kV=0.23 kW=1 PF=0.95
New Load.LOAD519 Phases=1 Bus1=5401.3 kV=0.23 kW=1 PF=0.95
New Load.LOAD520 Phases=1 Bus1=5430.3 kV=0.23 kW=1 PF=0.95
New Load.LOAD521 Phases=1 Bus1=5431.2 kV=0.23 kW=1 PF=0.95
New Load.LOAD522 Phases=1 Bus1=5465.1 kV=0.23 kW=1 PF=0.95
New Load.LOAD523 Phases=1 Bus1=5475.3 kV=0.23 kW=1 PF=0.95
New Load.LOAD524 Phases=1 Bus1=5494.2 kV=0.23 kW=1 PF=0.95
New Load.LOAD525 Phases=1 Bus1=5500.2 kV=0.23 kW=1 PF=0.95
New Load.LOAD526 Phases=1 Bus1=5527.1 kV=0.23 kW=1 PF=0.95
New Load.LOAD527 Phases=1 Bus1=5542.2 kV=0.23 kW=1 PF=0.95
New Load.LOAD528 Phases=1 Bus1=5562.1 kV=0.23 kW=1 PF=0.95
New Load.LOAD529 Phases=1 Bus1=5571.2 kV=0.23 kW=1 PF=0.95
New Load.LOAD530 Phases=1 Bus1=5655.1 kV=0.23 kW=1 PF=0.95
New Load.LOAD531 Phases=1 Bus1=5657.3 kV=0.23 kW=1 PF=0.95
New Load.LOAD532 Phases=1 Bus1=5672.2 kV=0.23 kW=1 PF=0.95
New Load.LOAD533 Phases=1 Bus1=5696.2 kV=0.23 kW=1 PF=0.95
New Load.LOAD534 Phases=1 Bus1=5733.1 kV=0.23 kW=1 PF=0.95
New Load.LOAD535 Phases=1 Bus1=5742.3 kV=0.23 kW=1 PF=0.95
New Load.LOAD536 Phases=1 Bus1=5766.3 kV=0.23 kW=1 PF=0.95
New Load.LOAD537 Phases=1 Bus1=5802.3 kV=0.23 kW=1 PF=0.95
New Load.LOAD538 Phases=1 Bus1=5808.1 kV=0.23 kW=1 PF=0.95
New Load.LOAD539 Phases=1 Bus1=5809.3 kV=0.23 kW=1 PF=0.95
New Load.LOAD540 Phases=1 Bus1=5825.3 kV=0.23 kW=1 PF=0.95
New Load.LOAD541 Phases=1 Bus1=5836.1 kV=0.23 kW=1 PF=0.95
New Load.LOAD542 Phases=1 Bus1=5840.1 kV=0.23 kW=1 PF=0.95
New Load.LOAD543 Phases=1 Bus1=5860.1 kV=0.23 kW=1 PF=0.95
New Load.LOAD544 Phases=1 Bus1=5865.3 kV=0.23 kW=1 PF=0.95
New Load.LOAD545 Phases=1 Bus1=5888.2 kV=0.23 kW=1 PF=0.95
New Load.LOAD546 Phases=1 Bus1=5925.3 kV=0.23 kW=1 PF=0.95
New Load.LOAD547 Phases=1 Bus1=5950.1 kV=0.23 kW=1 PF=0.95
New Load.LOAD548 Phases=1 Bus1=5962.2 kV=0.23 kW=1 PF=0.95
New Load.LOAD549 Phases=1 Bus1=5979.2 kV=0.23 kW=1 PF=0.95
New Load.LOAD550 Phases=1 Bus1=51004.1 kV=0.23 kW=1 PF=0.95
New Load.LOAD551 Phases=1 Bus1=51030.3 kV=0.23 kW=1 PF=0.95
New Load.LOAD552 Phases=1 Bus1=51056.3 kV=0.23 kW=1 PF=0.95
New Load.LOAD553 Phases=1 Bus1=51071.2 kV=0.23 kW=1 PF=0.95
New Load.LOAD554 Phases=1 Bus1=51087.3 kV=0.23 kW=1 PF=0.95
New Load.LOAD555 Phases=1 Bus1=51111.2 kV=0.23 kW=1 PF=0.95
New Load.LOAD556 Phases=1 Bus1=51144.1 kV=0.23 kW=1 PF=0.95
New Load.LOAD557 Phases=1 Bus1=51146.3 kV=0.23 kW=1 PF=0.95
New Load.LOAD558 Phases=1 Bus1=51168.2 kV=0.23 kW=1 PF=0.95
New Load.LOAD559 Phases=1 Bus1=51171.1 kV=0.23 kW=1 PF=0.95
New Load.LOAD560 Phases=1 Bus1=51177.1 kV=0.23 kW=1 PF=0.95
New Load.LOAD561 Phases=1 Bus1=51183.1 kV=0.23 kW=1 PF=0.95
New Load.LOAD562 Phases=1 Bus1=51190.2 kV=0.23 kW=1 PF=0.95
New Load.LOAD563 Phases=1 Bus1=51194.2 kV=0.23 kW=1 PF=0.95
New Load.LOAD564 Phases=1 Bus1=51218.1 kV=0.23 kW=1 PF=0.95
New Load.LOAD565 Phases=1 Bus1=51228.2 kV=0.23 kW=1 PF=0.95
New Load.LOAD566 Phases=1 Bus1=51254.1 kV=0.23 kW=1 PF=0.95
New Load.LOAD567 Phases=1 Bus1=51256.2 kV=0.23 kW=1 PF=0.95
New Load.LOAD568 Phases=1 Bus1=51276.1 kV=0.23 kW=1 PF=0.95
New Load.LOAD569 Phases=1 Bus1=51278.2 kV=0.23 kW=1 PF=0.95
New Load.LOAD570 Phases=1 Bus1=51284.3 kV=0.23 kW=1 PF=0.95
New Load.LOAD571 Phases=1 Bus1=51301.2 kV=0.23 kW=1 PF=0.95
New Load.LOAD572 Phases=1 Bus1=51309.3 kV=0.23 kW=1 PF=0.95
New Load.LOAD573 Phases=1 Bus1=51367.2 kV=0.23 kW=1 PF=0.95
New Load.LOAD574 Phases=1 Bus1=51397.1 kV=0.23 kW=1 PF=0.95
New Load.LOAD575 Phases=1 Bus1=51405.3 kV=0.23 kW=1 PF=0.95
New Load.LOAD576 Phases=1 Bus1=51425.3 kV=0.23 kW=1 PF=0.95
New Load.LOAD577 Phases=1 Bus1=51450.2 kV=0.23 kW=1 PF=0.95
New Load.LOAD578 Phases=1 Bus1=51459.1 kV=0.23 kW=1 PF=0.95
New Load.LOAD579 Phases=1 Bus1=51471.3 kV=0.23 kW=1 PF=0.95
New Load.LOAD580 Phases=1 Bus1=51483.3 kV=0.23 kW=1 PF=0.95
New Load.LOAD581 Phases=1 Bus1=51505.1 kV=0.23 kW=1 PF=0.95
New Load.LOAD582 Phases=1 Bus1=51517.3 kV=0.23 kW=1 PF=0.95
New Load.LOAD583 Phases=1 Bus1=51520.1 kV=0.23 kW=1 PF=0.95
New Load.LOAD584 Phases=1 Bus1=51532.2 kV=0.23 kW=1 PF=0.95
New Load.LOAD585 Phases=1 Bus1=51575.1 kV=0.23 kW=1 PF=0.95
New Load.LOAD586 Phases=1 Bus1=51620.3 kV=0.23 kW=1 PF=0.95
New Load.LOAD587 Phases=1 Bus1=51621.3 kV=0.23 kW=1 PF=0.95
New Load.LOAD588 Phases=1 Bus1=51628.2 kV=0.23 kW=1 PF=0.95
New Load.LOAD589 Phases=1 Bus1=51634.3 kV=0.23 kW=1 PF=0.95
New Load.LOAD590 Phases=1 Bus1=51637.2 kV=0.23 kW=1 PF=0.95
New Load.LOAD591 Phases=1 Bus1=51669.3 kV=0.23 kW=1 PF=0.95
New Load.LOAD592 Phases=1 Bus1=51676.1 kV=0.23 kW=1 PF=0.95
New Load.LOAD593 Phases=1 Bus1=51677.2 kV=0.23 kW=1 PF=0.95
New Load.LOAD594 Phases=1 Bus1=51685.2 kV=0.23 kW=1 PF=0.95
New Load.LOAD595 Phases=1 Bus1=51699.3 kV=0.23 kW=1 PF=0.95
New Load.LOAD596 Phases=1 Bus1=51720.1 kV=0.23 kW=1 PF=0.95
New Load.LOAD597 Phases=1 Bus1=51742.2 kV=0.23 kW=1 PF=0.95
New Load.LOAD598 Phases=1 Bus1=51743.3 kV=0.23 kW=1 PF=0.95
New Load.LOAD599 Phases=1 Bus1=51765.3 kV=0.23 kW=1 PF=0.95
New Load.LOAD5100 Phases=1 Bus1=51773.2 kV=0.23 kW=1 PF=0.95
New Load.LOAD5101 Phases=1 Bus1=51811.1 kV=0.23 kW=1 PF=0.95
New Load.LOAD5102 Phases=1 Bus1=51831.2 kV=0.23 kW=1 PF=0.95
New Load.LOAD5103 Phases=1 Bus1=51846.3 kV=0.23 kW=1 PF=0.95
New Load.LOAD5104 Phases=1 Bus1=51854.1 kV=0.23 kW=1 PF=0.95
New Load.LOAD5105 Phases=1 Bus1=51857.2 kV=0.23 kW=1 PF=0.95
New Load.LOAD5106 Phases=1 Bus1=51875.1 kV=0.23 kW=1 PF=0.95
New Load.LOAD5107 Phases=1 Bus1=51879.3 kV=0.23 kW=1 PF=0.95
New Load.LOAD5108 Phases=1 Bus1=51890.1 kV=0.23 kW=1 PF=0.95
New Load.LOAD5109 Phases=1 Bus1=51898.1 kV=0.23 kW=1 PF=0.95
New Load.LOAD5110 Phases=1 Bus1=51914.1 kV=0.23 kW=1 PF=0.95
New Load.LOAD5111 Phases=1 Bus1=51928.2 kV=0.23 kW=1 PF=0.95
New Load.LOAD5112 Phases=1 Bus1=51936.1 kV=0.23 kW=1 PF=0.95
New Load.LOAD5113 Phases=1 Bus1=51958.1 kV=0.23 kW=1 PF=0.95
New Load.LOAD5114 Phases=1 Bus1=51963.2 kV=0.23 kW=1 PF=0.95
New Load.LOAD5115 Phases=1 Bus1=52034.3 kV=0.23 kW=1 PF=0.95
New Load.LOAD5116 Phases=1 Bus1=52124.2 kV=0.23 kW=1 PF=0.95
New Load.LOAD5117 Phases=1 Bus1=52169.1 kV=0.23 kW=1 PF=0.95
New Load.LOAD5118 Phases=1 Bus1=52180.3 kV=0.23 kW=1 PF=0.95
New Load.LOAD5119 Phases=1 Bus1=52232.1 kV=0.23 kW=1 PF=0.95
New Load.LOAD5120 Phases=1 Bus1=52258.1 kV=0.23 kW=1 PF=0.95
New Load.LOAD5121 Phases=1 Bus1=52260.2 kV=0.23 kW=1 PF=0.95
New Load.LOAD5122 Phases=1 Bus1=52289.2 kV=0.23 kW=1 PF=0.95
New Load.LOAD5123 Phases=1 Bus1=52292.3 kV=0.23 kW=1 PF=0.95
New Load.LOAD5124 Phases=1 Bus1=52294.1 kV=0.23 kW=1 PF=0.95
New Load.LOAD5125 Phases=1 Bus1=52295.2 kV=0.23 kW=1 PF=0.95
New Load.LOAD5126 Phases=1 Bus1=52337.3 kV=0.23 kW=1 PF=0.95
New Load.LOAD5127 Phases=1 Bus1=52344.1 kV=0.23 kW=1 PF=0.95
New Load.LOAD5128 Phases=1 Bus1=52349.2 kV=0.23 kW=1 PF=0.95
New Load.LOAD5129 Phases=1 Bus1=52389.3 kV=0.23 kW=1 PF=0.95
New Load.LOAD5130 Phases=1 Bus1=52391.2 kV=0.23 kW=1 PF=0.95
New Load.LOAD5131 Phases=1 Bus1=52394.1 kV=0.23 kW=1 PF=0.95
New Load.LOAD5132 Phases=1 Bus1=52397.2 kV=0.23 kW=1 PF=0.95
New Load.LOAD5133 Phases=1 Bus1=52401.3 kV=0.23 kW=1 PF=0.95
New Load.LOAD5134 Phases=1 Bus1=52436.1 kV=0.23 kW=1 PF=0.95
New Load.LOAD5135 Phases=1 Bus1=52492.1 kV=0.23 kW=1 PF=0.95
New Load.LOAD5136 Phases=1 Bus1=52514.2 kV=0.23 kW=1 PF=0.95
New Load.LOAD5137 Phases=1 Bus1=52541.3 kV=0.23 kW=1 PF=0.95
New Load.LOAD5138 Phases=1 Bus1=52543.1 kV=0.23 kW=1 PF=0.95
New Load.LOAD5139 Phases=1 Bus1=52548.1 kV=0.23 kW=1 PF=0.95
New Load.LOAD5140 Phases=1 Bus1=52551.2 kV=0.23 kW=1 PF=0.95
New Load.LOAD5141 Phases=1 Bus1=52553.3 kV=0.23 kW=1 PF=0.95
New Load.LOAD5142 Phases=1 Bus1=52554.1 kV=0.23 kW=1 PF=0.95
New Load.LOAD5143 Phases=1 Bus1=52570.3 kV=0.23 kW=1 PF=0.95
New Load.LOAD5144 Phases=1 Bus1=52586.2 kV=0.23 kW=1 PF=0.95
New Load.LOAD5145 Phases=1 Bus1=52587.3 kV=0.23 kW=1 PF=0.95
New Load.LOAD5146 Phases=1 Bus1=52600.1 kV=0.23 kW=1 PF=0.95
New Load.LOAD5147 Phases=1 Bus1=52605.2 kV=0.23 kW=1 PF=0.95
New Load.LOAD5148 Phases=1 Bus1=52676.1 kV=0.23 kW=1 PF=0.95
New Load.LOAD5149 Phases=1 Bus1=52691.1 kV=0.23 kW=1 PF=0.95
New Load.LOAD5150 Phases=1 Bus1=52692.3 kV=0.23 kW=1 PF=0.95
New Load.LOAD5151 Phases=1 Bus1=52696.3 kV=0.23 kW=1 PF=0.95
New Load.LOAD5152 Phases=1 Bus1=52715.1 kV=0.23 kW=1 PF=0.95
New Load.LOAD5153 Phases=1 Bus1=52716.3 kV=0.23 kW=1 PF=0.95
New Load.LOAD5154 Phases=1 Bus1=52726.2 kV=0.23 kW=1 PF=0.95
New Load.LOAD5155 Phases=1 Bus1=52735.3 kV=0.23 kW=1 PF=0.95
New Load.LOAD5156 Phases=1 Bus1=52743.2 kV=0.23 kW=1 PF=0.95
New Load.LOAD5157 Phases=1 Bus1=52744.3 kV=0.23 kW=1 PF=0.95
New Load.LOAD5158 Phases=1 Bus1=52749.2 kV=0.23 kW=1 PF=0.95
New Load.LOAD5159 Phases=1 Bus1=52751.2 kV=0.23 kW=1 PF=0.95
New Load.LOAD61 Phases=1 Bus1=6124.3 kV=0.23 kW=1 PF=0.95
New Load.LOAD62 Phases=1 Bus1=6142.2 kV=0.23 kW=1 PF=0.95
New Load.LOAD63 Phases=1 Bus1=6216.1 kV=0.23 kW=1 PF=0.95
New Load.LOAD64 Phases=1 Bus1=6220.1 kV=0.23 kW=1 PF=0.95
New Load.LOAD65 Phases=1 Bus1=6307.3 kV=0.23 kW=1 PF=0.95
New Load.LOAD66 Phases=1 Bus1=6318.2 kV=0.23 kW=1 PF=0.95
New Load.LOAD67 Phases=1 Bus1=6345.2 kV=0.23 kW=1 PF=0.95
New Load.LOAD68 Phases=1 Bus1=6401.3 kV=0.23 kW=1 PF=0.95
New Load.LOAD69 Phases=1 Bus1=6410.2 kV=0.23 kW=1 PF=0.95
New Load.LOAD610 Phases=1 Bus1=6440.2 kV=0.23 kW=1 PF=0.95
New Load.LOAD611 Phases=1 Bus1=6441.2 kV=0.23 kW=1 PF=0.95
New Load.LOAD612 Phases=1 Bus1=6512.2 kV=0.23 kW=1 PF=0.95
New Load.LOAD613 Phases=1 Bus1=6575.2 kV=0.23 kW=1 PF=0.95
New Load.LOAD614 Phases=1 Bus1=6576.2 kV=0.23 kW=1 PF=0.95
New Load.LOAD615 Phases=1 Bus1=6577.1 kV=0.23 kW=1 PF=0.95
New Load.LOAD616 Phases=1 Bus1=6579.3 kV=0.23 kW=1 PF=0.95
New Load.LOAD617 Phases=1 Bus1=6620.2 kV=0.23 kW=1 PF=0.95
New Load.LOAD618 Phases=1 Bus1=6714.3 kV=0.23 kW=1 PF=0.95
New Load.LOAD619 Phases=1 Bus1=6728.1 kV=0.23 kW=1 PF=0.95
New Load.LOAD620 Phases=1 Bus1=6754.3 kV=0.23 kW=1 PF=0.95
New Load.LOAD621 Phases=1 Bus1=6755.3 kV=0.23 kW=1 PF=0.95
New Load.LOAD622 Phases=1 Bus1=6776.1 kV=0.23 kW=1 PF=0.95
New Load.LOAD623 Phases=1 Bus1=6777.1 kV=0.23 kW=1 PF=0.95
New Load.LOAD624 Phases=1 Bus1=6785.3 kV=0.23 kW=1 PF=0.95
New Load.LOAD625 Phases=1 Bus1=6786.3 kV=0.23 kW=1 PF=0.95
New Load.LOAD626 Phases=1 Bus1=6799.1 kV=0.23 kW=1 PF=0.95
New Load.LOAD627 Phases=1 Bus1=6809.1 kV=0.23 kW=1 PF=0.95
New Load.LOAD628 Phases=1 Bus1=6810.1 kV=0.23 kW=1 PF=0.95
New Load.LOAD629 Phases=1 Bus1=6838.2 kV=0.23 kW=1 PF=0.95
New Load.LOAD630 Phases=1 Bus1=6842.1 kV=0.23 kW=1 PF=0.95
New Load.LOAD631 Phases=1 Bus1=6843.1 kV=0.23 kW=1 PF=0.95
New Load.LOAD632 Phases=1 Bus1=6871.3 kV=0.23 kW=1 PF=0.95
New Load.LOAD633 Phases=1 Bus1=6887.1 kV=0.23 kW=1 PF=0.95
New Load.LOAD634 Phases=1 Bus1=6930.1 kV=0.23 kW=1 PF=0.95
New Load.LOAD635 Phases=1 Bus1=6931.1 kV=0.23 kW=1 PF=0.95
New Load.LOAD636 Phases=1 Bus1=6968.2 kV=0.23 kW=1 PF=0.95
New Load.LOAD637 Phases=1 Bus1=6980.2 kV=0.23 kW=1 PF=0.95
New Load.LOAD638 Phases=1 Bus1=61027.3 kV=0.23 kW=1 PF=0.95
New Load.LOAD639 Phases=1 Bus1=61040.2 kV=0.23 kW=1 PF=0.95
New Load.LOAD640 Phases=1 Bus1=61041.2 kV=0.23 kW=1 PF=0.95
New Load.LOAD641 Phases=1 Bus1=61049.2 kV=0.23 kW=1 PF=0.95
New Load.LOAD642 Phases=1 Bus1=61062.3 kV=0.23 kW=1 PF=0.95
New Load.LOAD643 Phases=1 Bus1=61075.1 kV=0.23 kW=1 PF=0.95
New Load.LOAD644 Phases=1 Bus1=61094.2 kV=0.23 kW=1 PF=0.95
New Load.LOAD645 Phases=1 Bus1=61095.2 kV=0.23 kW=1 PF=0.95
New Load.LOAD646 Phases=1 Bus1=61105.3 kV=0.23 kW=1 PF=0.95
New Load.LOAD647 Phases=1 Bus1=61106.3 kV=0.23 kW=1 PF=0.95
New Load.LOAD648 Phases=1 Bus1=61121.3 kV=0.23 kW=1 PF=0.95
New Load.LOAD649 Phases=1 Bus1=61146.2 kV=0.23 kW=1 PF=0.95
New Load.LOAD650 Phases=1 Bus1=61166.3 kV=0.23 kW=1 PF=0.95
New Load.LOAD651 Phases=1 Bus1=61202.2 kV=0.23 kW=1 PF=0.95
New Load.LOAD652 Phases=1 Bus1=61203.2 kV=0.23 kW=1 PF=0.95
New Load.LOAD653 Phases=1 Bus1=61219.1 kV=0.23 kW=1 PF=0.95
New Load.LOAD654 Phases=1 Bus1=61275.2 kV=0.23 kW=1 PF=0.95
New Load.LOAD655 Phases=1 Bus1=61317.1 kV=0.23 kW=1 PF=0.95
New Load.LOAD656 Phases=1 Bus1=61318.1 kV=0.23 kW=1 PF=0.95
New Load.LOAD657 Phases=1 Bus1=61327.1 kV=0.23 kW=1 PF=0.95
New Load.LOAD658 Phases=1 Bus1=61330.2 kV=0.23 kW=1 PF=0.95
New Load.LOAD659 Phases=1 Bus1=61382.3 kV=0.23 kW=1 PF=0.95
New Load.LOAD660 Phases=1 Bus1=61391.2 kV=0.23 kW=1 PF=0.95
New Load.LOAD661 Phases=1 Bus1=61405.1 kV=0.23 kW=1 PF=0.95
New Load.LOAD662 Phases=1 Bus1=61416.2 kV=0.23 kW=1 PF=0.95
New Load.LOAD663 Phases=1 Bus1=61509.2 kV=0.23 kW=1 PF=0.95
New Load.LOAD664 Phases=1 Bus1=61511.1 kV=0.23 kW=1 PF=0.95
New Load.LOAD665 Phases=1 Bus1=61518.3 kV=0.23 kW=1 PF=0.95
New Load.LOAD666 Phases=1 Bus1=61528.1 kV=0.23 kW=1 PF=0.95
New Load.LOAD667 Phases=1 Bus1=61550.2 kV=0.23 kW=1 PF=0.95
New Load.LOAD668 Phases=1 Bus1=61555.2 kV=0.23 kW=1 PF=0.95
New Load.LOAD669 Phases=1 Bus1=61584.2 kV=0.23 kW=1 PF=0.95
New Load.LOAD670 Phases=1 Bus1=61588.3 kV=0.23 kW=1 PF=0.95
New Load.LOAD671 Phases=1 Bus1=61606.1 kV=0.23 kW=1 PF=0.95
New Load.LOAD672 Phases=1 Bus1=61616.3 kV=0.23 kW=1 PF=0.95
New Load.LOAD673 Phases=1 Bus1=61617.3 kV=0.23 kW=1 PF=0.95
New Load.LOAD674 Phases=1 Bus1=61631.1 kV=0.23 kW=1 PF=0.95
New Load.LOAD675 Phases=1 Bus1=61671.1 kV=0.23 kW=1 PF=0.95
New Load.LOAD676 Phases=1 Bus1=61672.1 kV=0.23 kW=1 PF=0.95
New Load.LOAD677 Phases=1 Bus1=61718.2 kV=0.23 kW=1 PF=0.95
New Load.LOAD678 Phases=1 Bus1=61805.3 kV=0.23 kW=1 PF=0.95
New Load.LOAD679 Phases=1 Bus1=61808.3 kV=0.23 kW=1 PF=0.95
New Load.LOAD680 Phases=1 Bus1=61836.3 kV=0.23 kW=1 PF=0.95
New Load.LOAD681 Phases=1 Bus1=61839.3 kV=0.23 kW=1 PF=0.95
New Load.LOAD682 Phases=1 Bus1=61841.1 kV=0.23 kW=1 PF=0.95
New Load.LOAD683 Phases=1 Bus1=61845.1 kV=0.23 kW=1 PF=0.95
New Load.LOAD684 Phases=1 Bus1=61857.2 kV=0.23 kW=1 PF=0.95
New Load.LOAD685 Phases=1 Bus1=61862.2 kV=0.23 kW=1 PF=0.95
New Load.LOAD686 Phases=1 Bus1=61873.3 kV=0.23 kW=1 PF=0.95
New Load.LOAD687 Phases=1 Bus1=61885.1 kV=0.23 kW=1 PF=0.95
New Load.LOAD688 Phases=1 Bus1=61954.3 kV=0.23 kW=1 PF=0.95
New Load.LOAD689 Phases=1 Bus1=61972.2 kV=0.23 kW=1 PF=0.95
New Load.LOAD690 Phases=1 Bus1=62005.3 kV=0.23 kW=1 PF=0.95
New Load.LOAD691 Phases=1 Bus1=62006.3 kV=0.23 kW=1 PF=0.95
New Load.LOAD692 Phases=1 Bus1=62029.3 kV=0.23 kW=1 PF=0.95
New Load.LOAD693 Phases=1 Bus1=62031.2 kV=0.23 kW=1 PF=0.95
New Load.LOAD694 Phases=1 Bus1=62046.3 kV=0.23 kW=1 PF=0.95
New Load.LOAD695 Phases=1 Bus1=62063.3 kV=0.23 kW=1 PF=0.95
New Load.LOAD696 Phases=1 Bus1=62073.3 kV=0.23 kW=1 PF=0.95
New Load.LOAD697 Phases=1 Bus1=62081.2 kV=0.23 kW=1 PF=0.95
New Load.LOAD698 Phases=1 Bus1=62100.1 kV=0.23 kW=1 PF=0.95
New Load.LOAD699 Phases=1 Bus1=62101.1 kV=0.23 kW=1 PF=0.95
New Load.LOAD6100 Phases=1 Bus1=62103.3 kV=0.23 kW=1 PF=0.95
New Load.LOAD6101 Phases=1 Bus1=62105.3 kV=0.23 kW=1 PF=0.95
New Load.LOAD6102 Phases=1 Bus1=62106.2 kV=0.23 kW=1 PF=0.95
New Load.LOAD6103 Phases=1 Bus1=62108.2 kV=0.23 kW=1 PF=0.95
New Load.LOAD6104 Phases=1 Bus1=62115.1 kV=0.23 kW=1 PF=0.95
New Load.LOAD6105 Phases=1 Bus1=62119.1 kV=0.23 kW=1 PF=0.95
New Load.LOAD6106 Phases=1 Bus1=62121.2 kV=0.23 kW=1 PF=0.95
New Load.LOAD6107 Phases=1 Bus1=62126.3 kV=0.23 kW=1 PF=0.95
New Load.LOAD6108 Phases=1 Bus1=62127.3 kV=0.23 kW=1 PF=0.95
New Load.LOAD6109 Phases=1 Bus1=62131.1 kV=0.23 kW=1 PF=0.95
New Load.LOAD6110 Phases=1 Bus1=62132.1 kV=0.23 kW=1 PF=0.95
New Load.LOAD6111 Phases=1 Bus1=62133.1 kV=0.23 kW=1 PF=0.95
New Load.LOAD6112 Phases=1 Bus1=62172.3 kV=0.23 kW=1 PF=0.95
New Load.LOAD6113 Phases=1 Bus1=62181.2 kV=0.23 kW=1 PF=0.95
New Load.LOAD6114 Phases=1 Bus1=62182.2 kV=0.23 kW=1 PF=0.95
New Load.LOAD6115 Phases=1 Bus1=62231.3 kV=0.23 kW=1 PF=0.95
New Load.LOAD6116 Phases=1 Bus1=62250.3 kV=0.23 kW=1 PF=0.95
New Load.LOAD6117 Phases=1 Bus1=62254.2 kV=0.23 kW=1 PF=0.95
New Load.LOAD6118 Phases=1 Bus1=62255.2 kV=0.23 kW=1 PF=0.95
New Load.LOAD6119 Phases=1 Bus1=62291.2 kV=0.23 kW=1 PF=0.95
New Load.LOAD6120 Phases=1 Bus1=62342.1 kV=0.23 kW=1 PF=0.95
New Load.LOAD6121 Phases=1 Bus1=62370.3 kV=0.23 kW=1 PF=0.95
New Load.LOAD6122 Phases=1 Bus1=62371.3 kV=0.23 kW=1 PF=0.95
New Load.LOAD6123 Phases=1 Bus1=62392.2 kV=0.23 kW=1 PF=0.95
New Load.LOAD6124 Phases=1 Bus1=62393.2 kV=0.23 kW=1 PF=0.95
New Load.LOAD6125 Phases=1 Bus1=62402.2 kV=0.23 kW=1 PF=0.95
New Load.LOAD6126 Phases=1 Bus1=62403.2 kV=0.23 kW=1 PF=0.95
New Load.LOAD6127 Phases=1 Bus1=62430.3 kV=0.23 kW=1 PF=0.95
New Load.LOAD6128 Phases=1 Bus1=62431.3 kV=0.23 kW=1 PF=0.95
New Load.LOAD6129 Phases=1 Bus1=62435.2 kV=0.23 kW=1 PF=0.95
New Load.LOAD6130 Phases=1 Bus1=62461.1 kV=0.23 kW=1 PF=0.95
New Load.LOAD6131 Phases=1 Bus1=62462.3 kV=0.23 kW=1 PF=0.95
New Load.LOAD6132 Phases=1 Bus1=62482.3 kV=0.23 kW=1 PF=0.95
New Load.LOAD6133 Phases=1 Bus1=62484.3 kV=0.23 kW=1 PF=0.95
New Load.LOAD6134 Phases=1 Bus1=62485.3 kV=0.23 kW=1 PF=0.95
New Load.LOAD6135 Phases=1 Bus1=62496.1 kV=0.23 kW=1 PF=0.95
New Load.LOAD6136 Phases=1 Bus1=62550.1 kV=0.23 kW=1 PF=0.95
New Load.LOAD6137 Phases=1 Bus1=62574.1 kV=0.23 kW=1 PF=0.95
New Load.LOAD6138 Phases=1 Bus1=62575.2 kV=0.23 kW=1 PF=0.95
New Load.LOAD6139 Phases=1 Bus1=62576.2 kV=0.23 kW=1 PF=0.95
New Load.LOAD6140 Phases=1 Bus1=62587.1 kV=0.23 kW=1 PF=0.95
New Load.LOAD6141 Phases=1 Bus1=62599.1 kV=0.23 kW=1 PF=0.95
New Load.LOAD6142 Phases=1 Bus1=62600.1 kV=0.23 kW=1 PF=0.95
New Load.LOAD6143 Phases=1 Bus1=62609.2 kV=0.23 kW=1 PF=0.95
New Load.LOAD6144 Phases=1 Bus1=62610.2 kV=0.23 kW=1 PF=0.95
New Load.LOAD6145 Phases=1 Bus1=62640.1 kV=0.23 kW=1 PF=0.95
New Load.LOAD6146 Phases=1 Bus1=62642.1 kV=0.23 kW=1 PF=0.95
New Load.LOAD6147 Phases=1 Bus1=62665.2 kV=0.23 kW=1 PF=0.95
New Load.LOAD6148 Phases=1 Bus1=62676.2 kV=0.23 kW=1 PF=0.95
New Load.LOAD6149 Phases=1 Bus1=62708.2 kV=0.23 kW=1 PF=0.95
New Load.LOAD6150 Phases=1 Bus1=62709.1 kV=0.23 kW=1 PF=0.95
New Load.LOAD6151 Phases=1 Bus1=62732.1 kV=0.23 kW=1 PF=0.95
New Load.LOAD6152 Phases=1 Bus1=62756.1 kV=0.23 kW=1 PF=0.95
New Load.LOAD6153 Phases=1 Bus1=62846.1 kV=0.23 kW=1 PF=0.95
New Load.LOAD6154 Phases=1 Bus1=62858.2 kV=0.23 kW=1 PF=0.95
New Load.LOAD6155 Phases=1 Bus1=62872.3 kV=0.23 kW=1 PF=0.95
New Load.LOAD6156 Phases=1 Bus1=62873.3 kV=0.23 kW=1 PF=0.95
New Load.LOAD6157 Phases=1 Bus1=62881.2 kV=0.23 kW=1 PF=0.95
New Load.LOAD6158 Phases=1 Bus1=62883.3 kV=0.23 kW=1 PF=0.95
New Load.LOAD6159 Phases=1 Bus1=62901.2 kV=0.23 kW=1 PF=0.95
New Load.LOAD6160 Phases=1 Bus1=62902.2 kV=0.23 kW=1 PF=0.95
New Load.LOAD6161 Phases=1 Bus1=62915.2 kV=0.23 kW=1 PF=0.95
New Load.LOAD6162 Phases=1 Bus1=62924.3 kV=0.23 kW=1 PF=0.95
New Load.LOAD6163 Phases=1 Bus1=62925.3 kV=0.23 kW=1 PF=0.95
New Load.LOAD6164 Phases=1 Bus1=62934.2 kV=0.23 kW=1 PF=0.95
New Load.LOAD6165 Phases=1 Bus1=62935.2 kV=0.23 kW=1 PF=0.95
New Load.LOAD6166 Phases=1 Bus1=62936.2 kV=0.23 kW=1 PF=0.95
New Load.LOAD6167 Phases=1 Bus1=62951.2 kV=0.23 kW=1 PF=0.95
New Load.LOAD6168 Phases=1 Bus1=62953.3 kV=0.23 kW=1 PF=0.95
New Load.LOAD6169 Phases=1 Bus1=63023.2 kV=0.23 kW=1 PF=0.95
New Load.LOAD6170 Phases=1 Bus1=63024.2 kV=0.23 kW=1 PF=0.95
New Load.LOAD6171 Phases=1 Bus1=63039.3 kV=0.23 kW=1 PF=0.95
New Load.LOAD6172 Phases=1 Bus1=63040.3 kV=0.23 kW=1 PF=0.95
New Load.LOAD6173 Phases=1 Bus1=63091.1 kV=0.23 kW=1 PF=0.95
New Load.LOAD6174 Phases=1 Bus1=63106.1 kV=0.23 kW=1 PF=0.95
New Load.LOAD6175 Phases=1 Bus1=63130.1 kV=0.23 kW=1 PF=0.95
New Load.LOAD6176 Phases=1 Bus1=63138.1 kV=0.23 kW=1 PF=0.95
New Load.LOAD6177 Phases=1 Bus1=63166.3 kV=0.23 kW=1 PF=0.95
New Load.LOAD6178 Phases=1 Bus1=63198.2 kV=0.23 kW=1 PF=0.95
New Load.LOAD6179 Phases=1 Bus1=63199.2 kV=0.23 kW=1 PF=0.95
New Load.LOAD6180 Phases=1 Bus1=63200.2 kV=0.23 kW=1 PF=0.95
New Load.LOAD6181 Phases=1 Bus1=63220.1 kV=0.23 kW=1 PF=0.95
New Load.LOAD6182 Phases=1 Bus1=63225.1 kV=0.23 kW=1 PF=0.95
New Load.LOAD6183 Phases=1 Bus1=63226.1 kV=0.23 kW=1 PF=0.95
New Load.LOAD6184 Phases=1 Bus1=63246.3 kV=0.23 kW=1 PF=0.95
New Load.LOAD6185 Phases=1 Bus1=63247.3 kV=0.23 kW=1 PF=0.95
New Load.LOAD6186 Phases=1 Bus1=63248.3 kV=0.23 kW=1 PF=0.95
New Load.LOAD6187 Phases=1 Bus1=63249.1 kV=0.23 kW=1 PF=0.95
New Load.LOAD6188 Phases=1 Bus1=63250.1 kV=0.23 kW=1 PF=0.95
New Load.LOAD6189 Phases=1 Bus1=63314.3 kV=0.23 kW=1 PF=0.95
New Load.LOAD6190 Phases=1 Bus1=63335.2 kV=0.23 kW=1 PF=0.95
New Load.LOAD6191 Phases=1 Bus1=63339.2 kV=0.23 kW=1 PF=0.95
New Load.LOAD6192 Phases=1 Bus1=63340.2 kV=0.23 kW=1 PF=0.95
New Load.LOAD6193 Phases=1 Bus1=63341.2 kV=0.23 kW=1 PF=0.95
New Load.LOAD6194 Phases=1 Bus1=63361.2 kV=0.23 kW=1 PF=0.95
New Load.LOAD6195 Phases=1 Bus1=63362.2 kV=0.23 kW=1 PF=0.95
New Load.LOAD6196 Phases=1 Bus1=63407.3 kV=0.23 kW=1 PF=0.95
New Load.LOAD6197 Phases=1 Bus1=63417.3 kV=0.23 kW=1 PF=0.95
New Load.LOAD6198 Phases=1 Bus1=63445.3 kV=0.23 kW=1 PF=0.95
New Load.LOAD6199 Phases=1 Bus1=63479.1 kV=0.23 kW=1 PF=0.95
New Load.LOAD6200 Phases=1 Bus1=63507.3 kV=0.23 kW=1 PF=0.95
New Load.LOAD6201 Phases=1 Bus1=63531.3 kV=0.23 kW=1 PF=0.95
New Load.LOAD6202 Phases=1 Bus1=63535.1 kV=0.23 kW=1 PF=0.95
New Load.LOAD6203 Phases=1 Bus1=63564.1 kV=0.23 kW=1 PF=0.95
New Load.LOAD6204 Phases=1 Bus1=63565.1 kV=0.23 kW=1 PF=0.95
New Load.LOAD6205 Phases=1 Bus1=63576.3 kV=0.23 kW=1 PF=0.95
New Load.LOAD6206 Phases=1 Bus1=63577.3 kV=0.23 kW=1 PF=0.95
New Load.LOAD6207 Phases=1 Bus1=63578.2 kV=0.23 kW=1 PF=0.95
New Load.LOAD6208 Phases=1 Bus1=63579.2 kV=0.23 kW=1 PF=0.95
New Load.LOAD6209 Phases=1 Bus1=63616.3 kV=0.23 kW=1 PF=0.95
New Load.LOAD6210 Phases=1 Bus1=63621.3 kV=0.23 kW=1 PF=0.95
New Load.LOAD6211 Phases=1 Bus1=63659.3 kV=0.23 kW=1 PF=0.95
New Load.LOAD6212 Phases=1 Bus1=63660.3 kV=0.23 kW=1 PF=0.95
New Load.LOAD6213 Phases=1 Bus1=63666.1 kV=0.23 kW=1 PF=0.95
New Load.LOAD6214 Phases=1 Bus1=63674.3 kV=0.23 kW=1 PF=0.95
New Load.LOAD6215 Phases=1 Bus1=63698.3 kV=0.23 kW=1 PF=0.95
New Load.LOAD6216 Phases=1 Bus1=63731.1 kV=0.23 kW=1 PF=0.95
New Load.LOAD6217 Phases=1 Bus1=63750.3 kV=0.23 kW=1 PF=0.95
New Load.LOAD6218 Phases=1 Bus1=63751.3 kV=0.23 kW=1 PF=0.95
New Load.LOAD6219 Phases=1 Bus1=63754.1 kV=0.23 kW=1 PF=0.95
New Load.LOAD6220 Phases=1 Bus1=63755.1 kV=0.23 kW=1 PF=0.95
New Load.LOAD6221 Phases=1 Bus1=63832.3 kV=0.23 kW=1 PF=0.95
New Load.LOAD6222 Phases=1 Bus1=63836.1 kV=0.23 kW=1 PF=0.95
New Load.LOAD6223 Phases=1 Bus1=63855.3 kV=0.23 kW=1 PF=0.95
New Load.LOAD71 Phases=1 Bus1=7167.1 kV=0.23 kW=1 PF=0.95
New Load.LOAD72 Phases=1 Bus1=7222.3 kV=0.23 kW=1 PF=0.95
New Load.LOAD73 Phases=1 Bus1=7237.2 kV=0.23 kW=1 PF=0.95
New Load.LOAD74 Phases=1 Bus1=7238.2 kV=0.23 kW=1 PF=0.95
New Load.LOAD75 Phases=1 Bus1=7285.2 kV=0.23 kW=1 PF=0.95
New Load.LOAD76 Phases=1 Bus1=7359.1 kV=0.23 kW=1 PF=0.95
New Load.LOAD77 Phases=1 Bus1=7370.3 kV=0.23 kW=1 PF=0.95
New Load.LOAD78 Phases=1 Bus1=7400.1 kV=0.23 kW=1 PF=0.95
New Load.LOAD79 Phases=1 Bus1=7417.3 kV=0.23 kW=1 PF=0.95
New Load.LOAD710 Phases=1 Bus1=7465.2 kV=0.23 kW=1 PF=0.95
New Load.LOAD711 Phases=1 Bus1=7486.1 kV=0.23 kW=1 PF=0.95
New Load.LOAD712 Phases=1 Bus1=7563.3 kV=0.23 kW=1 PF=0.95
New Load.LOAD713 Phases=1 Bus1=7564.3 kV=0.23 kW=1 PF=0.95
New Load.LOAD714 Phases=1 Bus1=7600.1 kV=0.23 kW=1 PF=0.95
New Load.LOAD715 Phases=1 Bus1=7601.1 kV=0.23 kW=1 PF=0.95
New Load.LOAD716 Phases=1 Bus1=7662.1 kV=0.23 kW=1 PF=0.95
New Load.LOAD717 Phases=1 Bus1=7663.1 kV=0.23 kW=1 PF=0.95
New Load.LOAD718 Phases=1 Bus1=7679.3 kV=0.23 kW=1 PF=0.95
New Load.LOAD719 Phases=1 Bus1=7680.2 kV=0.23 kW=1 PF=0.95
New Load.LOAD720 Phases=1 Bus1=7684.2 kV=0.23 kW=1 PF=0.95
New Load.LOAD721 Phases=1 Bus1=7685.2 kV=0.23 kW=1 PF=0.95
New Load.LOAD722 Phases=1 Bus1=7693.2 kV=0.23 kW=1 PF=0.95
New Load.LOAD723 Phases=1 Bus1=7708.2 kV=0.23 kW=1 PF=0.95
New Load.LOAD724 Phases=1 Bus1=7713.1 kV=0.23 kW=1 PF=0.95
New Load.LOAD725 Phases=1 Bus1=7714.1 kV=0.23 kW=1 PF=0.95
New Load.LOAD726 Phases=1 Bus1=7724.1 kV=0.23 kW=1 PF=0.95
New Load.LOAD727 Phases=1 Bus1=7726.3 kV=0.23 kW=1 PF=0.95
New Load.LOAD728 Phases=1 Bus1=7732.1 kV=0.23 kW=1 PF=0.95
New Load.LOAD729 Phases=1 Bus1=7880.3 kV=0.23 kW=1 PF=0.95
New Load.LOAD730 Phases=1 Bus1=71038.3 kV=0.23 kW=1 PF=0.95
New Load.LOAD731 Phases=1 Bus1=71040.2 kV=0.23 kW=1 PF=0.95
New Load.LOAD732 Phases=1 Bus1=71043.2 kV=0.23 kW=1 PF=0.95
New Load.LOAD733 Phases=1 Bus1=71085.1 kV=0.23 kW=1 PF=0.95
New Load.LOAD734 Phases=1 Bus1=71088.2 kV=0.23 kW=1 PF=0.95
New Load.LOAD735 Phases=1 Bus1=71111.3 kV=0.23 kW=1 PF=0.95
New Load.LOAD736 Phases=1 Bus1=71112.3 kV=0.23 kW=1 PF=0.95
New Load.LOAD737 Phases=1 Bus1=71118.3 kV=0.23 kW=1 PF=0.95
New Load.LOAD738 Phases=1 Bus1=71125.1 kV=0.23 kW=1 PF=0.95
New Load.LOAD739 Phases=1 Bus1=71146.1 kV=0.23 kW=1 PF=0.95
New Load.LOAD740 Phases=1 Bus1=71156.1 kV=0.23 kW=1 PF=0.95
New Load.LOAD741 Phases=1 Bus1=71162.2 kV=0.23 kW=1 PF=0.95
New Load.LOAD742 Phases=1 Bus1=71183.1 kV=0.23 kW=1 PF=0.95
New Load.LOAD743 Phases=1 Bus1=71197.1 kV=0.23 kW=1 PF=0.95
New Load.LOAD744 Phases=1 Bus1=71202.3 kV=0.23 kW=1 PF=0.95
New Load.LOAD745 Phases=1 Bus1=71204.1 kV=0.23 kW=1 PF=0.95
New Load.LOAD746 Phases=1 Bus1=71236.1 kV=0.23 kW=1 PF=0.95
New Load.LOAD747 Phases=1 Bus1=71237.2 kV=0.23 kW=1 PF=0.95
New Load.LOAD748 Phases=1 Bus1=71267.2 kV=0.23 kW=1 PF=0.95
New Load.LOAD749 Phases=1 Bus1=71274.1 kV=0.23 kW=1 PF=0.95
New Load.LOAD750 Phases=1 Bus1=71280.3 kV=0.23 kW=1 PF=0.95
New Load.LOAD751 Phases=1 Bus1=71288.2 kV=0.23 kW=1 PF=0.95
New Load.LOAD752 Phases=1 Bus1=71290.2 kV=0.23 kW=1 PF=0.95
New Load.LOAD753 Phases=1 Bus1=71304.3 kV=0.23 kW=1 PF=0.95
New Load.LOAD754 Phases=1 Bus1=71320.1 kV=0.23 kW=1 PF=0.95
New Load.LOAD755 Phases=1 Bus1=71321.1 kV=0.23 kW=1 PF=0.95
New Load.LOAD756 Phases=1 Bus1=71325.2 kV=0.23 kW=1 PF=0.95
New Load.LOAD757 Phases=1 Bus1=71381.1 kV=0.23 kW=1 PF=0.95
New Load.LOAD758 Phases=1 Bus1=71403.1 kV=0.23 kW=1 PF=0.95
New Load.LOAD759 Phases=1 Bus1=71434.1 kV=0.23 kW=1 PF=0.95
New Load.LOAD760 Phases=1 Bus1=71445.2 kV=0.23 kW=1 PF=0.95
New Load.LOAD761 Phases=1 Bus1=71458.1 kV=0.23 kW=1 PF=0.95
New Load.LOAD762 Phases=1 Bus1=71522.2 kV=0.23 kW=1 PF=0.95
New Load.LOAD763 Phases=1 Bus1=71545.1 kV=0.23 kW=1 PF=0.95
New Load.LOAD764 Phases=1 Bus1=71546.1 kV=0.23 kW=1 PF=0.95
New Load.LOAD765 Phases=1 Bus1=71548.3 kV=0.23 kW=1 PF=0.95
New Load.LOAD766 Phases=1 Bus1=71549.3 kV=0.23 kW=1 PF=0.95
New Load.LOAD767 Phases=1 Bus1=71553.1 kV=0.23 kW=1 PF=0.95
New Load.LOAD768 Phases=1 Bus1=71554.2 kV=0.23 kW=1 PF=0.95
New Load.LOAD769 Phases=1 Bus1=71599.3 kV=0.23 kW=1 PF=0.95
New Load.LOAD770 Phases=1 Bus1=71600.2 kV=0.23 kW=1 PF=0.95
New Load.LOAD771 Phases=1 Bus1=71603.1 kV=0.23 kW=1 PF=0.95
New Load.LOAD772 Phases=1 Bus1=71637.2 kV=0.23 kW=1 PF=0.95
New Load.LOAD773 Phases=1 Bus1=71638.3 kV=0.23 kW=1 PF=0.95
New Load.LOAD774 Phases=1 Bus1=71664.2 kV=0.23 kW=1 PF=0.95
New Load.LOAD775 Phases=1 Bus1=71666.1 kV=0.23 kW=1 PF=0.95
New Load.LOAD776 Phases=1 Bus1=71671.3 kV=0.23 kW=1 PF=0.95
New Load.LOAD777 Phases=1 Bus1=71672.3 kV=0.23 kW=1 PF=0.95
New Load.LOAD778 Phases=1 Bus1=71684.2 kV=0.23 kW=1 PF=0.95
New Load.LOAD779 Phases=1 Bus1=71697.2 kV=0.23 kW=1 PF=0.95
New Load.LOAD780 Phases=1 Bus1=71717.3 kV=0.23 kW=1 PF=0.95
New Load.LOAD781 Phases=1 Bus1=71721.1 kV=0.23 kW=1 PF=0.95
New Load.LOAD782 Phases=1 Bus1=71722.1 kV=0.23 kW=1 PF=0.95
New Load.LOAD783 Phases=1 Bus1=71725.3 kV=0.23 kW=1 PF=0.95
New Load.LOAD784 Phases=1 Bus1=71736.1 kV=0.23 kW=1 PF=0.95
New Load.LOAD785 Phases=1 Bus1=71747.3 kV=0.23 kW=1 PF=0.95
New Load.LOAD786 Phases=1 Bus1=71751.1 kV=0.23 kW=1 PF=0.95
New Load.LOAD787 Phases=1 Bus1=71754.3 kV=0.23 kW=1 PF=0.95
New Load.LOAD788 Phases=1 Bus1=71761.3 kV=0.23 kW=1 PF=0.95
New Load.LOAD789 Phases=1 Bus1=71784.1 kV=0.23 kW=1 PF=0.95
New Load.LOAD790 Phases=1 Bus1=71803.2 kV=0.23 kW=1 PF=0.95
New Load.LOAD791 Phases=1 Bus1=71993.2 kV=0.23 kW=1 PF=0.95
New Load.LOAD792 Phases=1 Bus1=71994.2 kV=0.23 kW=1 PF=0.95
New Load.LOAD793 Phases=1 Bus1=71997.3 kV=0.23 kW=1 PF=0.95
New Load.LOAD794 Phases=1 Bus1=71998.3 kV=0.23 kW=1 PF=0.95
New Load.LOAD795 Phases=1 Bus1=72012.2 kV=0.23 kW=1 PF=0.95
New Load.LOAD796 Phases=1 Bus1=72013.2 kV=0.23 kW=1 PF=0.95
New Load.LOAD797 Phases=1 Bus1=72014.2 kV=0.23 kW=1 PF=0.95
New Load.LOAD798 Phases=1 Bus1=72015.2 kV=0.23 kW=1 PF=0.95
New Load.LOAD799 Phases=1 Bus1=72029.2 kV=0.23 kW=1 PF=0.95
New Load.LOAD7100 Phases=1 Bus1=72034.2 kV=0.23 kW=1 PF=0.95
New Load.LOAD7101 Phases=1 Bus1=72163.2 kV=0.23 kW=1 PF=0.95
New Load.LOAD7102 Phases=1 Bus1=72246.3 kV=0.23 kW=1 PF=0.95
New Load.LOAD7103 Phases=1 Bus1=72253.1 kV=0.23 kW=1 PF=0.95
New Load.LOAD7104 Phases=1 Bus1=72254.3 kV=0.23 kW=1 PF=0.95
New Load.LOAD7105 Phases=1 Bus1=72255.3 kV=0.23 kW=1 PF=0.95
New Load.LOAD7106 Phases=1 Bus1=72256.3 kV=0.23 kW=1 PF=0.95
New Load.LOAD7107 Phases=1 Bus1=72257.3 kV=0.23 kW=1 PF=0.95
New Load.LOAD7108 Phases=1 Bus1=72258.3 kV=0.23 kW=1 PF=0.95
New Load.LOAD7109 Phases=1 Bus1=72259.3 kV=0.23 kW=1 PF=0.95
New Load.LOAD7110 Phases=1 Bus1=72260.3 kV=0.23 kW=1 PF=0.95
New Load.LOAD7111 Phases=1 Bus1=72261.3 kV=0.23 kW=1 PF=0.95
New Load.LOAD7112 Phases=1 Bus1=72262.3 kV=0.23 kW=1 PF=0.95
New Load.LOAD7113 Phases=1 Bus1=72263.3 kV=0.23 kW=1 PF=0.95
New Load.LOAD7114 Phases=1 Bus1=72264.3 kV=0.23 kW=1 PF=0.95
New Load.LOAD7115 Phases=1 Bus1=72265.3 kV=0.23 kW=1 PF=0.95
New Load.LOAD7116 Phases=1 Bus1=72266.3 kV=0.23 kW=1 PF=0.95
New Load.LOAD7117 Phases=1 Bus1=72267.3 kV=0.23 kW=1 PF=0.95
New Load.LOAD7118 Phases=1 Bus1=72268.3 kV=0.23 kW=1 PF=0.95
New Load.LOAD7119 Phases=1 Bus1=72269.3 kV=0.23 kW=1 PF=0.95
New Load.LOAD7120 Phases=1 Bus1=72301.2 kV=0.23 kW=1 PF=0.95
New Load.LOAD7121 Phases=1 Bus1=72430.3 kV=0.23 kW=1 PF=0.95
